LTspice 24.0.12 for Windows
Circuit: * bootstrap_hbridge_irzl44n.cir
Start Time: Tue Dec 16 23:28:28 2025
solver = Normal
Maximum thread count: 32
tnom = 27
temp = 27
method = modified trap
Direct Newton iteration for .op point succeeded.
Changing Tseed to 2e-11
Total elapsed time: 1.742 seconds.

