LTspice 24.0.12 for Windows
Circuit: * C:\Users\mbes1\OneDrive\Desktop\custom_tank_drive\hardware\electrical\simulations\ltspice\H-Bridge.asc
Start Time: Tue Dec 16 19:35:09 2025
solver = Normal
Maximum thread count: 32
tnom = 27
temp = 27
method = modified trap
Direct Newton iteration for .op point succeeded.
Total elapsed time: 0.068 seconds.

