LTspice 24.0.12 for Windows
Circuit: * C:\Users\mbes1\OneDrive\Desktop\custom_tank_drive\hardware\electrical\simulations\ltspice\H-Bridge.asc
Start Time: Sun Dec 28 14:05:38 2025
solver = Normal
Maximum thread count: 32
tnom = 27
temp = 27
method = modified trap
WARNING: Specified period is not longer than the sum of Trise, Tfall, and Ton for v3.  Increasing period to 2.5002e-05
Direct Newton iteration for .op point succeeded.
Heightened Def Con from 0.000822502 to 0.000822502
Heightened Def Con from 0.0010725 to 0.0010725
Total elapsed time: 5.818 seconds.

