LTspice 24.0.12 for Windows
Circuit: * C:\Users\mbes1\OneDrive\Desktop\custom_tank_drive\hardware\electrical\simulations\ltspice\H-Bridge.asc
Start Time: Tue Jan  6 10:24:10 2026
solver = Normal
Maximum thread count: 32
tnom = 27
temp = 27
method = modified trap
WARNING: Specified period is not longer than the sum of Trise, Tfall, and Ton for v3.  Increasing period to 2.5002e-05
WARNING: Less than two connections to node vb.  This node is used by v3.
WARNING: Less than two connections to node vf.  This node is used by v4.
Direct Newton iteration failed to find .op point.  (Use ".option noopiter" to skip.)
Starting Gmin stepping
Gmin = 10
Gmin = 1.07374
Gmin = 0.115292
Gmin = 0.0123794
Gmin = 0.00132923
Gmin = 0.000142725
Gmin = 1.5325e-05
Gmin = 1.6455e-06
Gmin = 1.76685e-07
Gmin = 1.89714e-08
Gmin = 2.03704e-09
Gmin = 2.18725e-10
Gmin = 2.34854e-11
Gmin = 2.52173e-12
Gmin = 2.70769e-13
Gmin = 0
Gmin stepping succeeded in finding the operating point.

Heightened Def Con from 0.0014975 to 0.0014975
Total elapsed time: 3.323 seconds.

