LTspice 24.0.12 for Windows
Circuit: * C:\Users\mbes1\OneDrive\Desktop\custom_tank_drive\hardware\electrical\simulations\ltspice\H-Bridge.asc
Start Time: Sat Jan 31 09:15:46 2026
solver = Normal
Maximum thread count: 32
tnom = 27
temp = 27
method = modified trap
WARNING: Specified period is not longer than the sum of Trise, Tfall, and Ton for v3.  Increasing period to 1.002e-06
WARNING: Less than two connections to node vf.  This node is used by v4.
Direct Newton iteration failed to find .op point.  (Use ".option noopiter" to skip.)
Starting Gmin stepping
Gmin = 10
Gmin = 1.07374
Gmin = 0.115292
Gmin = 0.0123794
Gmin = 0.00132923
Gmin = 0.000142725
Gmin = 1.5325e-05
Gmin = 1.6455e-06
Gmin = 1.76685e-07
Gmin = 1.89714e-08
Gmin = 2.03704e-09
Gmin = 2.18725e-10
Gmin = 2.34854e-11
Gmin = 2.52173e-12
Gmin = 2.70769e-13
Gmin = 0
Gmin stepping succeeded in finding the operating point.

Heightened Def Con from 0.000175991 to 0.000175991
Heightened Def Con from 0.000321639 to 0.000321641
Heightened Def Con from 0.000403992 to 0.000403998
Heightened Def Con from 0.000410991 to 0.000410992
Heightened Def Con from 0.000411991 to 0.000411992
Heightened Def Con from 0.000412991 to 0.000412992
Heightened Def Con from 0.000413989 to 0.000413991
Heightened Def Con from 0.000413991 to 0.000413991
Heightened Def Con from 0.000414991 to 0.000414991
Heightened Def Con from 0.000415991 to 0.000415992
Heightened Def Con from 0.000416991 to 0.000416992
Heightened Def Con from 0.000419991 to 0.000419992
Heightened Def Con from 0.000422842 to 0.000422843
Heightened Def Con from 0.000509992 to 0.000509992
Heightened Def Con from 0.000530991 to 0.000530992
Heightened Def Con from 0.000542991 to 0.000542992
Heightened Def Con from 0.000543991 to 0.000543992
Heightened Def Con from 0.000547991 to 0.000547992
Heightened Def Con from 0.000598991 to 0.000598992
Heightened Def Con from 0.000602991 to 0.000602992
Heightened Def Con from 0.000635991 to 0.000635992
Heightened Def Con from 0.000639991 to 0.000639992
Heightened Def Con from 0.000646991 to 0.000646992
Heightened Def Con from 0.000648991 to 0.000648991
Heightened Def Con from 0.000648991 to 0.000648991
Heightened Def Con from 0.000649991 to 0.000649991
Heightened Def Con from 0.000661991 to 0.000661992
Heightened Def Con from 0.00066699 to 0.00066699
Heightened Def Con from 0.000692381 to 0.000692381
Heightened Def Con from 0.000695992 to 0.000695992
Heightened Def Con from 0.000695992 to 0.000695998
Heightened Def Con from 0.000702991 to 0.000702992
Heightened Def Con from 0.000712 to 0.000712
Heightened Def Con from 0.000714991 to 0.000714992
Heightened Def Con from 0.000715991 to 0.000715992
Heightened Def Con from 0.000718991 to 0.000718992
Heightened Def Con from 0.000720436 to 0.000720441
Heightened Def Con from 0.000724991 to 0.000724992
Heightened Def Con from 0.000733991 to 0.000733992
Heightened Def Con from 0.000750991 to 0.000750992
Heightened Def Con from 0.000752991 to 0.000752992
Heightened Def Con from 0.000755991 to 0.000755992
Heightened Def Con from 0.000757991 to 0.000757992
Heightened Def Con from 0.000765991 to 0.000765992
Heightened Def Con from 0.000770991 to 0.000770992
Heightened Def Con from 0.000774991 to 0.000774992
Heightened Def Con from 0.000777991 to 0.000777992
Heightened Def Con from 0.000779991 to 0.000779992
Heightened Def Con from 0.000786991 to 0.000786992
Heightened Def Con from 0.000788991 to 0.000788992
Heightened Def Con from 0.000789992 to 0.000789992
Heightened Def Con from 0.000794991 to 0.000794992
Heightened Def Con from 0.000795991 to 0.000795992
Heightened Def Con from 0.000796991 to 0.000796992
Heightened Def Con from 0.000802991 to 0.000802992
Heightened Def Con from 0.000805991 to 0.000805992
Heightened Def Con from 0.000811991 to 0.000811992
Heightened Def Con from 0.000816991 to 0.000816992
Heightened Def Con from 0.000828651 to 0.000828657
Heightened Def Con from 0.000834991 to 0.000834992
Heightened Def Con from 0.000841991 to 0.000841992
Heightened Def Con from 0.000846991 to 0.000846992
Heightened Def Con from 0.000856991 to 0.000856991
Heightened Def Con from 0.000857991 to 0.000857992
Heightened Def Con from 0.000859991 to 0.000859992
Heightened Def Con from 0.000862991 to 0.000862992
Heightened Def Con from 0.000868991 to 0.000868991
Heightened Def Con from 0.000870991 to 0.000870992
Heightened Def Con from 0.000872991 to 0.000872992
Heightened Def Con from 0.000877991 to 0.000877992
Heightened Def Con from 0.000892991 to 0.000892992
Heightened Def Con from 0.000895991 to 0.000895992
Heightened Def Con from 0.000897991 to 0.000897992
Heightened Def Con from 0.000898992 to 0.000898992
Heightened Def Con from 0.000898992 to 0.000898996
Heightened Def Con from 0.000899992 to 0.000899992
Heightened Def Con from 0.000900991 to 0.000900992
Heightened Def Con from 0.000901992 to 0.000901998
Heightened Def Con from 0.000902991 to 0.000902992
Heightened Def Con from 0.000903992 to 0.000903992
Heightened Def Con from 0.000904991 to 0.000904992
Heightened Def Con from 0.000905991 to 0.000905992
Heightened Def Con from 0.000916991 to 0.000916992
Heightened Def Con from 0.000933991 to 0.000933992
Heightened Def Con from 0.000937991 to 0.000937992
Heightened Def Con from 0.000939998 to 0.00094
Heightened Def Con from 0.000940991 to 0.000940992
Heightened Def Con from 0.00100199 to 0.00100199
Heightened Def Con from 0.00100299 to 0.00100299
Heightened Def Con from 0.00100399 to 0.00100399
Heightened Def Con from 0.00100499 to 0.00100499
Heightened Def Con from 0.00100799 to 0.00100799
Heightened Def Con from 0.00100999 to 0.00100999
Heightened Def Con from 0.001026 to 0.001026
Heightened Def Con from 0.001026 to 0.001026
Heightened Def Con from 0.001026 to 0.001026
Heightened Def Con from 0.00102699 to 0.00102699
Heightened Def Con from 0.00116999 to 0.00117
Heightened Def Con from 0.00124399 to 0.001244
Heightened Def Con from 0.00125099 to 0.001251
Heightened Def Con from 0.00127599 to 0.001276
Heightened Def Con from 0.001387 to 0.001387
Heightened Def Con from 0.00139799 to 0.001398
Heightened Def Con from 0.00139899 to 0.001399
Heightened Def Con from 0.00140199 to 0.001402
Heightened Def Con from 0.00149999 to 0.00149999
Heightened Def Con from 0.00150599 to 0.00150599
Heightened Def Con from 0.00151699 to 0.00151699
Heightened Def Con from 0.00151799 to 0.001518
Heightened Def Con from 0.00152099 to 0.00152099
Heightened Def Con from 0.00152699 to 0.00152699
Heightened Def Con from 0.00153099 to 0.00153099
Heightened Def Con from 0.00153999 to 0.00153999
Heightened Def Con from 0.00154199 to 0.00154199
Heightened Def Con from 0.00154999 to 0.00154999
Heightened Def Con from 0.00154999 to 0.00155
Heightened Def Con from 0.00155099 to 0.00155099
Heightened Def Con from 0.00155899 to 0.00155899
Heightened Def Con from 0.00157299 to 0.00157299
Heightened Def Con from 0.00157399 to 0.001574
Heightened Def Con from 0.00157499 to 0.00157499
Heightened Def Con from 0.001579 to 0.001579
Heightened Def Con from 0.001579 to 0.001579
Heightened Def Con from 0.001579 ++to 0.001579
Heightened Def Con from 0.001579 to 0.001579
Heightened Def Con from 0.00158199 to 0.00158199
Heightened Def Con from 0.00158299 to 0.00158299
Heightened Def Con from 0.00158899 to 0.00158899
Heightened Def Con from 0.00159199 to 0.001592
Heightened Def Con from 0.00159699 to 0.00159699
Heightened Def Con from 0.00160199 to 0.00160199
Heightened Def Con from 0.00160399 to 0.00160399
Heightened Def Con from 0.00160799 to 0.00160799
Heightened Def Con from 0.00160899 to 0.00160899
Heightened Def Con from 0.00160999 to 0.00160999
Heightened Def Con from 0.00161999 to 0.00161999
Heightened Def Con from 0.00162899 to 0.00162899
Heightened Def Con from 0.00163799 to 0.00163799
Heightened Def Con from 0.00163999 to 0.00163999
Heightened Def Con from 0.00164299 to 0.00164299
Heightened Def Con from 0.00164999 to 0.00164999
Heightened Def Con from 0.00165099 to 0.001651
Heightened Def Con from 0.00165499 to 0.00165499
Heightened Def Con from 0.00166799 to 0.00166799
Heightened Def Con from 0.00166899 to 0.00166899
Heightened Def Con from 0.00167299 to 0.00167299
Heightened Def Con from 0.00167599 to 0.00167599
Heightened Def Con from 0.00167799 to 0.00167799
Heightened Def Con from 0.00168799 to 0.00168799
Heightened Def Con from 0.00169299 to 0.00169299
Heightened Def Con from 0.00170099 to 0.00170099
Heightened Def Con from 0.00170599 to 0.00170599
Heightened Def Con from 0.00170799 to 0.00170799
Heightened Def Con from 0.00170899 to 0.00170899
Heightened Def Con from 0.00171199 to 0.001712
Heightened Def Con from 0.00171599 to 0.00171599
Heightened Def Con from 0.00171799 to 0.00171799
Heightened Def Con from 0.00171999 to 0.00171999
Heightened Def Con from 0.00172199 to 0.00172199
Heightened Def Con from 0.00172299 to 0.00172299
Heightened Def Con from 0.00172499 to 0.00172499
Heightened Def Con from 0.00173199 to 0.00173199
Heightened Def Con from 0.00173899 to 0.00173899
Heightened Def Con from 0.00173999 to 0.00173999
Heightened Def Con from 0.001742 to 0.001742
Heightened Def Con from 0.00174399 to 0.00174399
Heightened Def Con from 0.00174799 to 0.00174799
Heightened Def Con from 0.00174999 to 0.00174999
Heightened Def Con from 0.00175799 to 0.00175799
Heightened Def Con from 0.00176299 to 0.00176299
Heightened Def Con from 0.00176499 to 0.00176499
Heightened Def Con from 0.00176799 to 0.00176799
Heightened Def Con from 0.00177499 to 0.00177499
Heightened Def Con from 0.00177599 to 0.00177599
Heightened Def Con from 0.00177899 to 0.00177899
Heightened Def Con from 0.00177999 to 0.00177999
Heightened Def Con from 0.00178199 to 0.00178199
Heightened Def Con from 0.00178399 to 0.00178399
Heightened Def Con from 0.00178499 to 0.00178499
Heightened Def Con from 0.00178699 to 0.00178699
Heightened Def Con from 0.00179399 to 0.00179399
Heightened Def Con from 0.00179799 to 0.00179799
Heightened Def Con from 0.00180399 to 0.00180399
Heightened Def Con from 0.00180599 to 0.00180599
Heightened Def Con from 0.00180899 to 0.00180899
Heightened Def Con from 0.00180999 to 0.00180999
Heightened Def Con from 0.00181099 to 0.00181099
Heightened Def Con from 0.00181399 to 0.00181399
Heightened Def Con from 0.00181599 to 0.00181599
Heightened Def Con from 0.001817 to 0.001817
Heightened Def Con from 0.00181799 to 0.001818
Heightened Def Con from 0.00182699 to 0.00182699
Heightened Def Con from 0.00182999 to 0.00182999
Heightened Def Con from 0.00183399 to 0.00183399
Heightened Def Con from 0.00184199 to 0.00184199
Heightened Def Con from 0.00184399 to 0.00184399
Heightened Def Con from 0.00184599 to 0.00184599
Heightened Def Con from 0.00185199 to 0.00185199
Heightened Def Con from 0.00185299 to 0.00185299
Heightened Def Con from 0.00185299 to 0.00185299
Heightened Def Con from 0.00185299 to 0.001853
Heightened Def Con from 0.00185499 to 0.00185499
Heightened Def Con from 0.00185899 to 0.00185899
Heightened Def Con from 0.00186299 to 0.00186299
Heightened Def Con from 0.00186499 to 0.00186499
Heightened Def Con from 0.00186999 to 0.00186999
Heightened Def Con from 0.00187399 to 0.00187399
Heightened Def Con from 0.00187499 to 0.00187499
Heightened Def Con from 0.00187899 to 0.00187899
Heightened Def Con from 0.00187999 to 0.00187999
Heightened Def Con from 0.00188199 to 0.00188199
Heightened Def Con from 0.00188499 to 0.001885
Heightened Def Con from 0.00188599 to 0.00188599
Heightened Def Con from 0.001887 to 0.001887
Heightened Def Con from 0.001887 to 0.001887
Heightened Def Con from 0.001887 to 0.001887
Heightened Def Con from 0.001887 to 0.001887
Heightened Def Con from 0.001887 to 0.001887
Heightened Def Con from 0.001887 to 0.001887
Heightened Def Con from 0.00188899 to 0.00188899
Heightened Def Con from 0.00188999 to 0.00188999
Heightened Def Con from 0.00189199 to 0.00189199
Heightened Def Con from 0.00189299 to 0.00189299
Heightened Def Con from 0.00189399 to 0.00189399
Heightened Def Con from 0.00189699 to 0.00189699
Heightened Def Con from 0.00189799 to 0.00189799
Heightened Def Con from 0.00189799 to 0.001898
Heightened Def Con from 0.00189899 to 0.00189899
Heightened Def Con from 0.00189999 to 0.00189999
Heightened Def Con from 0.00190099 to 0.001901
Heightened Def Con from 0.001902 to 0.001902
Heightened Def Con from 0.00190399 to 0.00190399
Heightened Def Con from 0.00190499 to 0.00190499
Heightened Def Con from 0.00190699 to 0.00190699
Heightened Def Con from 0.00190899 to 0.00190899
Heightened Def Con from 0.00190999 to 0.00190999
Heightened Def Con from 0.00191099 to 0.00191099
Heightened Def Con from 0.001929 to 0.001929
Heightened Def Con from 0.00193799 to 0.00193799
Heightened Def Con from 0.00199198 to 0.00199198
Heightened Def Con from 0.00200199 to 0.00200199
Heightened Def Con from 0.00200799 to 0.00200799
Heightened Def Con from 0.00200899 to 0.00200899
Heightened Def Con from 0.00201 to 0.00201
Heightened Def Con from 0.00201199 to 0.00201199
Heightened Def Con from 0.00201599 to 0.00201599
Heightened Def Con from 0.00201599 to 0.00201599
Heightened Def Con from 0.00201599 to 0.00201599
Heightened Def Con from 0.00201599 to 0.00201599
Heightened Def Con from 0.00201599 to 0.002016
Heightened Def Con from 0.002021 to 0.002021
Heightened Def Con from 0.002021 to 0.002021
Heightened Def Con from 0.00202399 to 0.00202399
Heightened Def Con from 0.00202499 to 0.00202499
Heightened Def Con from 0.00202797 to 0.00202797
Heightened Def Con from 0.00202899 to 0.00202899
Heightened Def Con from 0.00203099 to 0.00203099
Heightened Def Con from 0.00203699 to 0.00203699
Heightened Def Con from 0.00205099 to 0.00205099
Heightened Def Con from 0.00205299 to 0.00205299
Heightened Def Con from 0.00205999 to 0.00206
Heightened Def Con from 0.00206199 to 0.00206199
Heightened Def Con from 0.00206299 to 0.00206299
Heightened Def Con from 0.00206599 ++++++++++++++to 0.00206599
Heightened Def Con from 0.00206599 to 0.00206599
Heightened Def Con from 0.00207099 to 0.00207099
Heightened Def Con from 0.00207799 to 0.00207799
Heightened Def Con from 0.00208099 to 0.00208099
Heightened Def Con from 0.00208199 to 0.00208199
Heightened Def Con from 0.00208199 +to 0.00208199
Heightened Def Con from 0.00208199 to 0.00208199
Heightened Def Con from 0.00208199 to 0.00208199
Heightened Def Con from 0.00208599 to 0.00208599
Heightened Def Con from 0.00208699 to 0.00208699
Heightened Def Con from 0.00208899 to 0.002089
Heightened Def Con from 0.00209099 to 0.00209099
Heightened Def Con from 0.00209899 to 0.00209899
Heightened Def Con from 0.00210199 to 0.00210199
Heightened Def Con from 0.00210399 to 0.00210399
Heightened Def Con from 0.00210499 to 0.00210499
Heightened Def Con from 0.00211299 to 0.00211299
Heightened Def Con from 0.00211499 to 0.00211499
Heightened Def Con from 0.00211799 to 0.00211799
Heightened Def Con from 0.00211999 to 0.00211999
Heightened Def Con from 0.00212199 to 0.002122
Heightened Def Con from 0.00213199 to 0.00213199
Heightened Def Con from 0.00213999 to 0.00213999
Heightened Def Con from 0.00214099 to 0.00214099
Heightened Def Con from 0.00214699 to 0.002147
Heightened Def Con from 0.00214799 to 0.00214799
Heightened Def Con from 0.00215199 to 0.00215199
Heightened Def Con from 0.00215299 to 0.00215299
Heightened Def Con from 0.00215599 to 0.00215599
Heightened Def Con from 0.00215799 to 0.00215799
Heightened Def Con from 0.00216399 to 0.00216399
Heightened Def Con from 0.00217299 to 0.00217299
Heightened Def Con from 0.00217599 to 0.00217599
Heightened Def Con from 0.00217935 to 0.00217935
Heightened Def Con from 0.00218199 to 0.00218199
Heightened Def Con from 0.00219299 to 0.00219299
Heightened Def Con from 0.00219599 to 0.00219599
Heightened Def Con from 0.00220599 to 0.002206
Heightened Def Con from 0.00221399 to 0.00221399
Heightened Def Con from 0.00221499 to 0.00221499
Heightened Def Con from 0.00222099 to 0.00222099
Heightened Def Con from 0.00222199 to 0.00222199
Heightened Def Con from 0.002234 to 0.002234
Heightened Def Con from 0.00223999 to 0.00223999
Heightened Def Con from 0.00224199 to 0.00224199
Heightened Def Con from 0.00224199 to 0.002242
Heightened Def Con from 0.00224999 to 0.00224999
Heightened Def Con from 0.00225399 to 0.00225399
Heightened Def Con from 0.00225899 to 0.00225899
Heightened Def Con from 0.00226399 to 0.00226399
Heightened Def Con from 0.00226999 to 0.00226999
Heightened Def Con from 0.00227199 to 0.00227199
Heightened Def Con from 0.00227299 to 0.00227299
Heightened Def Con from 0.00227399 to 0.00227399
Heightened Def Con from 0.00227399 to 0.002274
Heightened Def Con from 0.00227899 to 0.00227899
Heightened Def Con from 0.00227999 to 0.00227999
Heightened Def Con from 0.00228099 to 0.00228099
Heightened Def Con from 0.00228399 to 0.00228399
Heightened Def Con from 0.00228499 to 0.00228499
Heightened Def Con from 0.00228699 to 0.00228699
Heightened Def Con from 0.00228799 to 0.00228799
Heightened Def Con from 0.00229099 to 0.00229099
Heightened Def Con from 0.00229199 to 0.00229199
Heightened Def Con from 0.00229299 to 0.00229299
Heightened Def Con from 0.00229399 to 0.00229399
Heightened Def Con from 0.00229499 to 0.00229499
Heightened Def Con from 0.00229699 to 0.00229699
Heightened Def Con from 0.00229899 to 0.00229899
Heightened Def Con from 0.00229999 to 0.00229999
Heightened Def Con from 0.00230199 to 0.00230199
Heightened Def Con from 0.002303 to 0.002303
Heightened Def Con from 0.002303 to 0.002303
Heightened Def Con from 0.00230399 to 0.00230399
Heightened Def Con from 0.00233699 to 0.002337
Heightened Def Con from 0.00238099 to 0.002381
Heightened Def Con from 0.002391 to 0.002391
Heightened Def Con from 0.00239499 to 0.002395
Heightened Def Con from 0.00239899 to 0.002399
Heightened Def Con from 0.00246692 to 0.00246692
Heightened Def Con from 0.00250899 to 0.002509
Heightened Def Con from 0.00262399 to 0.002624
Heightened Def Con from 0.00271299 to 0.002713
Heightened Def Con from 0.00274648 to 0.00274649
Heightened Def Con from 0.00275199 to 0.002752
Heightened Def Con from 0.00279199 to 0.002792
Heightened Def Con from 0.00280499 to 0.002805
Heightened Def Con from 0.00281899 to 0.002819
Heightened Def Con from 0.00287699 to 0.002877
Heightened Def Con from 0.002889 to 0.002889
Heightened Def Con from 0.002906 to 0.002906
Heightened Def Con from 0.00291799 to 0.002918
Heightened Def Con from 0.00306599 to 0.003066
Heightened Def Con from 0.00310299 to 0.003103
Heightened Def Con from 0.00314099 to 0.003141
Heightened Def Con from 0.00318299 to 0.003183
Heightened Def Con from 0.00325499 to 0.003255
Heightened Def Con from 0.00326699 to 0.003267
Heightened Def Con from 0.00340199 to 0.003402
Heightened Def Con from 0.00340299 to 0.003403
Heightened Def Con from 0.00340399 to 0.003404
Heightened Def Con from 0.003405 to 0.003405
Heightened Def Con from 0.00350399 to 0.003504
Heightened Def Con from 0.00373599 to 0.003736
Heightened Def Con from 0.003769 to 0.003769
Heightened Def Con from 0.00380599 to 0.003806
Heightened Def Con from 0.00381499 to 0.003815
Heightened Def Con from 0.00382299 to 0.003823
Heightened Def Con from 0.00390499 to 0.003905
Heightened Def Con from 0.004078 to 0.004078
Heightened Def Con from 0.00415999 to 0.00416
Heightened Def Con from 0.00417299 to 0.004173
Heightened Def Con from 0.00440699 to 0.004407
Heightened Def Con from 0.004414 to 0.004414
Heightened Def Con from 0.00450298 to 0.004503
Heightened Def Con from 0.00455499 to 0.004555
Heightened Def Con from 0.00466799 to 0.004668
Heightened Def Con from 0.00468199 to 0.004682
Heightened Def Con from 0.00473099 to 0.004731
Heightened Def Con from 0.004852 to 0.004852
Heightened Def Con from 0.00489 to 0.00489
Heightened Def Con from 0.0049 to 0.0049
Total elapsed time: 48.326 seconds.

